A thorough data analysis combined with groundwater modelling was conducted in an Austrian binary karst aquifer to better understand changes in the hydrological behaviour observed at a karst spring. During a period of 4 years after a major flood event the spring hydrograph appears to be more damped with lower peak flow and higher baseflow than in the years before. The analysis of the hydrograph recession suggests that the observed hydrological change is caused by changes within the karst system rather than by varying hydro-meteorological conditions. The functioning of the aquifer and potential causes of the observed changes are further examined using the groundwater flow model MODFLOW. The simulation results suggest that a modification of hydraulic conductivity and storage within the conduit network, e.g. due to the plugging of the drainage conduits with sediments, may be the cause of the different behaviour. MODFLOW was able to reproduce the observed dynamics of spring flow, although it does not account for turbulent flow within karst conduits. Using a simplified model scenario it is demonstrated that the damping of the hydrograph is much stronger if turbulent conduit flow is taken into account. Thus, a turbulent flow model is needed to assess potential changes in the storage properties quantitatively.